Version 4
SHEET 1 880 680
WIRE 256 32 112 32
WIRE 288 32 256 32
WIRE 288 48 288 32
WIRE -64 64 -96 64
WIRE 32 64 16 64
WIRE 112 64 112 32
WIRE 32 112 32 64
WIRE 48 112 32 112
WIRE 64 112 48 112
WIRE 144 112 112 112
WIRE 144 144 144 112
WIRE 288 144 288 128
FLAG 112 144 0
FLAG 144 144 0
FLAG 288 144 0
FLAG -96 144 0
FLAG 256 32 out
FLAG 48 112 in
SYMBOL SLR 288 48 R0
SYMATTR InstName R1
SYMATTR Value {R_L}
SYMBOL SLXM 64 112 R0
WINDOW 0 66 -47 Left 2
WINDOW 38 66 -35 Left 2
WINDOW 3 66 -22 Left 2
SYMATTR InstName U1
SYMATTR SpiceModel CMOS18N
SYMBOL SLC -64 64 R270
WINDOW 0 16 40 VTop 2
WINDOW 3 -16 40 VBottom 2
SYMATTR InstName C1
SYMATTR Value {Cs}
SYMBOL SLV -96 64 M0
SYMATTR InstName V1
TEXT 56 168 Left 2 !.param W=200u L=180n ID=10m R_L=50 Cs=1.5p
TEXT 56 184 Left 2 !.lib SLiCAP.lib
