Version 4
SHEET 1 880 680
WIRE 80 128 -16 128
WIRE 176 128 160 128
WIRE 224 128 176 128
WIRE 352 128 304 128
WIRE 176 160 176 128
WIRE -16 272 -16 208
WIRE 176 272 176 240
WIRE 256 272 256 208
FLAG -16 272 0
FLAG 256 272 0
FLAG 352 128 out
IOPIN 352 128 Out
FLAG 176 272 0
SYMBOL SLC 160 128 R90
WINDOW 0 -16 40 VBottom 2
WINDOW 3 16 40 VTop 2
SYMATTR InstName C1
SYMATTR Value {C_A}
SYMBOL SLM_noise 304 112 R0
SYMATTR InstName U1
SYMATTR SpiceModel NM18_noise
SYMBOL SLV -16 128 R0
SYMATTR InstName V1
SYMBOL SLC 176 160 R0
SYMATTR InstName C2
SYMATTR Value {C_F}
TEXT 40 328 Left 2 !.lib SLiCAP.lib
