Version 4
SHEET 1 880 680
WIRE 288 -16 224 -16
WIRE 368 80 368 -16
WIRE 368 80 320 80
WIRE 528 80 448 80
WIRE 608 80 528 80
WIRE 528 112 528 80
WIRE 80 128 -16 128
WIRE 224 128 224 -16
WIRE 224 128 160 128
WIRE 272 128 224 128
WIRE 352 128 320 128
WIRE 352 160 352 128
WIRE 320 256 320 160
WIRE 528 256 528 192
WIRE -16 272 -16 208
FLAG -16 272 0
FLAG 608 80 out
IOPIN 608 80 Out
FLAG 320 256 0
FLAG 352 160 0
FLAG 528 256 0
SYMBOL SLC 160 128 R90
WINDOW 0 -16 40 VBottom 2
WINDOW 3 16 40 VTop 2
SYMATTR InstName C1
SYMATTR Value {C_A}
SYMBOL SLV -16 128 R0
SYMATTR InstName V1
SYMBOL SLXMPN 272 128 R0
WINDOW 0 -75 248 Left 2
WINDOW 38 -81 222 Left 2
WINDOW 3 -84 198 Left 2
SYMATTR InstName U1
SYMATTR SpiceModel CMOS18PN
SYMATTR Value W_N={W_N} L_N={L_N} ID_N={ID} W_P={W_P} L_P={L_P} ID_P={ID}
SYMBOL SLC 368 -16 R90
WINDOW 0 -16 40 VBottom 2
WINDOW 3 16 40 VTop 2
SYMATTR InstName C2
SYMATTR Value {C_F}
SYMBOL SLR 368 80 R270
WINDOW 0 8 40 VTop 2
WINDOW 3 -8 40 VBottom 2
SYMATTR InstName R1
SYMATTR Value 50
SYMBOL SLR 528 112 R0
SYMATTR InstName R2
SYMATTR Value 50
TEXT 40 328 Left 2 !.lib SLiCAP.lib
