Version 4
SHEET 1 1812 980
WIRE 48 -272 -112 -272
WIRE 176 -272 48 -272
WIRE 240 -272 176 -272
WIRE -112 -224 -112 -272
WIRE -160 -208 -160 -272
WIRE 48 -128 48 -272
WIRE -112 -112 -112 -144
WIRE 0 -112 -112 -112
WIRE 240 -112 240 -272
WIRE 176 -80 176 -272
WIRE 176 -80 48 -80
WIRE -112 -48 -112 -112
WIRE 864 16 736 16
WIRE 960 16 864 16
WIRE 48 32 48 -32
WIRE 96 32 48 32
WIRE 240 32 240 -32
WIRE 240 32 176 32
WIRE 736 64 736 16
WIRE 960 64 960 16
WIRE 688 80 544 80
WIRE -160 112 -160 -160
WIRE 240 112 240 32
WIRE 240 112 -160 112
WIRE 544 112 544 80
WIRE 864 112 864 16
WIRE 864 112 736 112
WIRE 240 128 -160 128
WIRE 496 128 496 80
WIRE 736 176 736 160
WIRE 1072 176 736 176
WIRE 96 208 48 208
WIRE 240 208 240 128
WIRE 240 208 176 208
WIRE 496 224 496 176
WIRE 544 224 544 192
WIRE 48 256 48 208
WIRE 240 272 240 208
WIRE 176 304 48 304
WIRE -112 336 -112 272
WIRE 0 336 -112 336
WIRE -112 368 -112 336
WIRE -160 384 -160 128
WIRE 544 400 544 304
WIRE 640 400 544 400
WIRE -160 496 -160 432
WIRE -112 496 -112 448
WIRE 48 496 48 352
WIRE 240 496 240 352
WIRE 544 512 544 400
WIRE 960 592 960 144
WIRE 1056 592 960 592
WIRE 544 624 544 592
WIRE 496 640 496 592
WIRE 736 656 736 176
WIRE 960 656 960 592
WIRE 1056 688 1056 592
WIRE 864 704 736 704
WIRE 496 736 496 688
WIRE 544 736 544 704
WIRE 688 736 544 736
WIRE 736 800 736 752
WIRE 864 800 864 704
WIRE 864 800 736 800
WIRE 960 800 960 736
WIRE 960 800 864 800
FLAG 176 304 0
FLAG 48 496 0
FLAG 240 496 0
FLAG -160 496 0
FLAG -160 -272 0
FLAG -112 496 0
FLAG -112 272 VgQn
FLAG -112 -48 VgQp
FLAG 496 592 0
FLAG 496 736 VgQn
FLAG 1072 176 OutP
FLAG 1056 688 0
FLAG 1344 384 0
FLAG 1344 304 Vin
FLAG 496 224 0
FLAG 496 80 VgQp
FLAG 640 400 Vin
DATAFLAG 640 80 ""
DATAFLAG 640 736 ""
DATAFLAG -16 -112 ""
SYMBOL pmos4 0 -32 M180
SYMATTR InstName M5
SYMATTR Value2 l={Lp} w={Wp} m={Mp}
SYMATTR Value C18pmos
SYMBOL nmos4 0 256 R0
SYMATTR InstName M4
SYMATTR Value C18nmos
SYMATTR Value2 l={Ln} w={Wn} m={Mn}
SYMBOL voltage 80 208 M90
WINDOW 0 -32 56 VBottom 2
WINDOW 3 32 56 VTop 2
WINDOW 123 0 0 Left 0
WINDOW 39 0 0 Left 0
SYMATTR InstName V4
SYMATTR Value {VdsN}
SYMBOL voltage 192 32 M270
WINDOW 0 32 56 VTop 2
WINDOW 3 -32 56 VBottom 2
WINDOW 123 0 0 Left 0
WINDOW 39 0 0 Left 0
SYMATTR InstName V5
SYMATTR Value {VdsP}
SYMBOL current 240 352 M180
WINDOW 0 24 80 Left 2
WINDOW 3 24 0 Left 2
WINDOW 123 0 0 Left 0
WINDOW 39 0 0 Left 0
SYMATTR InstName I1
SYMATTR Value {IdQ}
SYMBOL current 240 -32 M180
WINDOW 0 24 80 Left 2
WINDOW 3 24 0 Left 2
WINDOW 123 0 0 Left 0
WINDOW 39 0 0 Left 0
SYMATTR InstName I2
SYMATTR Value {IdQ}
SYMBOL e -112 352 R0
SYMATTR InstName E4
SYMATTR Value {Aref}
SYMBOL e -112 -128 M180
SYMATTR InstName E5
SYMATTR Value {Aref}
SYMBOL nmos4 688 656 R0
SYMATTR InstName M1
SYMATTR Value C18nmos
SYMATTR Value2 l={Ln} w={Wn} m={Mn}
SYMBOL pmos4 688 160 M180
SYMATTR InstName M2
SYMATTR Value2 l={Lp} w={Wp} m={Mp}
SYMATTR Value C18pmos
SYMBOL voltage 960 640 R0
SYMATTR InstName V1
SYMATTR Value {VdsN}
SYMBOL voltage 960 48 R0
WINDOW 123 0 0 Left 0
WINDOW 39 0 0 Left 0
SYMATTR InstName V2
SYMATTR Value {VdsP}
SYMBOL e 544 720 M180
SYMATTR InstName E1
SYMATTR Value 1
SYMBOL e 544 208 M180
SYMATTR InstName E2
SYMATTR Value 1
SYMBOL voltage 1344 288 R0
WINDOW 123 0 0 Left 0
WINDOW 39 0 0 Left 0
SYMATTR InstName V3
SYMATTR Value 1
SYMBOL voltage 544 496 R0
SYMATTR InstName V6
SYMATTR Value {VdsN}
SYMBOL voltage 544 208 R0
WINDOW 123 0 0 Left 0
WINDOW 39 0 0 Left 0
SYMATTR InstName V7
SYMATTR Value {VdsP}
TEXT -416 -352 Left 2 ;Biasing network
TEXT -416 -272 Left 1 ;PMOS biasing network
TEXT -416 128 Left 1 ;NMOS biasing network
TEXT 400 -256 Left 2 !.param L=180n W=30u M=1 Vdd=1.8
TEXT 400 -192 Left 2 !.param VdsP=0.5*Vdd VdsN=0.5*Vdd IdQ=1u
TEXT 400 -224 Left 2 !.param Ln=L Wn=W Mn=M Lp=L Wp=W Mp=2*M
TEXT 400 -160 Left 2 !.param Aref=100k
TEXT 400 -288 Left 2 !.lib CMOS18TT.lib
TEXT 400 -96 Left 2 ;Complementary parallel CS stage (CMOS push-pull pair)
TEXT 400 -352 Left 2 ;Library and parametrs
TEXT 1232 32 Left 2 !.op
RECTANGLE Normal -448 -320 368 544
RECTANGLE Normal 368 -320 -448 -384
RECTANGLE Normal 1264 864 368 -64
RECTANGLE Normal 1200 -320 368 -384
RECTANGLE Normal 1200 -64 368 -128
RECTANGLE Normal 1200 -128 368 -320
