Version 4
SHEET 1 1296 1020
WIRE 160 48 -128 48
WIRE 544 48 240 48
WIRE 64 176 32 176
WIRE 240 176 144 176
WIRE 544 176 544 48
WIRE 592 176 544 176
WIRE 32 192 32 176
WIRE 64 208 64 176
WIRE 144 208 144 176
WIRE 544 208 544 176
WIRE -416 256 -480 256
WIRE -256 256 -272 256
WIRE -128 256 -128 48
WIRE -128 256 -176 256
WIRE 16 256 -128 256
WIRE 208 256 192 256
WIRE 240 256 240 176
WIRE 496 256 240 256
WIRE 560 256 544 256
WIRE 592 256 592 176
WIRE 752 256 592 256
WIRE 1056 256 832 256
WIRE 1072 256 1056 256
WIRE 1056 272 1056 256
WIRE 544 304 544 288
WIRE 560 304 560 256
WIRE 560 304 544 304
WIRE -416 336 -432 336
WIRE -256 336 -272 336
WIRE -480 368 -480 336
WIRE -432 368 -432 336
WIRE -256 368 -256 336
WIRE 208 368 208 256
WIRE 544 368 544 304
WIRE 1056 368 1056 352
FLAG -480 368 0
FLAG 544 368 0
FLAG -128 256 in
FLAG 208 368 0
FLAG 32 192 0
FLAG -256 368 0
FLAG -432 368 0
FLAG 1056 368 0
FLAG 1072 256 out
IOPIN 1072 256 Out
SYMBOL SLC -176 256 R90
WINDOW 0 -16 40 VBottom 2
WINDOW 3 16 40 VTop 2
SYMATTR InstName Ca
SYMATTR Value {C_a}
SYMBOL SLV -480 256 M0
SYMATTR InstName V1
SYMBOL SLE -336 240 R0
WINDOW 0 -7 -26 Bottom 2
WINDOW 3 -7 -2 Bottom 2
SYMATTR InstName E1
SYMATTR Value {L_A}
SYMBOL SLC 160 48 R270
WINDOW 0 16 40 VTop 2
WINDOW 3 -16 40 VBottom 2
SYMATTR InstName Cf
SYMATTR Value {C_f}
SYMBOL SLR 752 256 R270
WINDOW 0 8 40 VTop 2
WINDOW 3 -8 40 VBottom 2
SYMATTR InstName R1
SYMATTR Value 50
SYMBOL SLR 1056 272 R0
WINDOW 3 15 53 Left 2
SYMATTR Value 50
SYMATTR InstName R2
SYMBOL SLXMD 16 256 R0
WINDOW 0 179 50 Right 2
WINDOW 38 178 75 Right 2
WINDOW 3 179 99 Right 2
SYMATTR InstName U3
SYMATTR SpiceModel CMOS18ND
SYMATTR Value W=2.4m L=1u ID=12m
SYMBOL SLXM 496 256 R0
WINDOW 0 31 44 Right 2
WINDOW 38 28 66 Right 2
WINDOW 3 76 90 Right 0
SYMATTR InstName U1
SYMATTR SpiceModel CMOS18PN
SYMATTR Value W_N=120u L_N=180n ID_N=1m W_P=440u L_P=180n ID_P=1m
TEXT -608 -16 Left 2 !.lib SLiCAP.lib
TEXT -72 144 Left 3 ;Input stage
TEXT -608 144 Left 3 ;Antenna model
TEXT 304 144 Left 3 ;Output stage
TEXT 648 144 Left 3 ;Impedance matching
TEXT 1000 144 Left 3 ;Load
TEXT -608 -48 Left 3 ;SPICE commands
RECTANGLE Normal -620 120 -164 408 2
RECTANGLE Normal -92 120 268 408 2
RECTANGLE Normal 292 120 612 408 2
RECTANGLE Normal 636 120 956 408 2
RECTANGLE Normal 988 120 1140 408 2
